@<TRIPOS>MOLECULE
HCMIDF_sil2.log
 106 109 0 0 0
SMALL
MULLIKEN_CHARGES
****
Gaussian 09 #P SCF(Conver=3)/LanL2DZ Opt
@<TRIPOS>ATOM
      1 N           1.4687    5.7471   -1.1886 N.4     0  UNK0       -0.8369
      2 H           1.2833    5.6853   -2.1789 H       0  UNK0        0.4330
      3 H           2.4310    5.4735   -1.0137 H       0  UNK0        0.4730
      4 H           1.3317    6.7021   -0.8934 H       0  UNK0        0.4433
      5 C           0.5741    4.7986   -0.3745 C.3     0  UNK0       -0.1062
      6 H           0.8195    5.0100    0.6536 H       0  UNK0        0.3680
      7 C          -0.9200    5.0837   -0.5657 C.3     0  UNK0       -0.4349
      8 H          -1.0558    6.1627   -0.5404 H       0  UNK0        0.2000
      9 H          -1.3108    4.7373   -1.5143 H       0  UNK0        0.2047
     10 C          -1.6294    4.4429    0.5911 C.ar    0  UNK0        0.2371
     11 N          -1.0964    4.5862    1.8732 N.ar    0  UNK0       -0.3759
     12 C          -1.8508    3.8513    2.6563 C.ar    0  UNK0       -0.0320
     13 H          -1.7044    3.6978    3.6975 H       0  UNK0        0.2574
     14 N          -2.8580    3.2703    1.9551 N.ar    0  UNK0       -0.5318
     15 H          -3.4434    2.5349    2.2953 H       0  UNK0        0.4766
     16 C          -2.7164    3.6265    0.6296 C.ar    0  UNK0       -0.2191
     17 H          -3.3748    3.2837   -0.1348 H       0  UNK0        0.3365
     18 C           1.1491    3.4025   -0.6404 C.2     0  UNK0        0.5060
     19 O           2.3675    3.2972   -0.3707 O.2     0  UNK0       -0.5543
     20 N           0.3722    2.4816   -1.1911 N.am    0  UNK0       -0.6382
     21 H          -0.5862    2.7267   -1.3609 H       0  UNK0        0.4114
     22 C           0.4518    0.9956   -1.1718 C.3     0  UNK0       -0.0199
     23 H           0.0682    0.7039   -0.2038 H       0  UNK0        0.3609
     24 C          -0.5229    0.4814   -2.2608 C.3     0  UNK0       -0.7099
     25 H          -0.4225   -0.5827   -2.3375 H       0  UNK0        0.2830
     26 H          -0.2649    0.9149   -3.2178 H       0  UNK0        0.2148
     27 S          -2.3199    0.9224   -1.9406 S.3     0  UNK0       -0.1351
     28 C           1.7647    0.2248   -1.3092 C.2     0  UNK0        0.4984
     29 O           1.6355   -1.0148   -1.3183 O.2     0  UNK0       -0.5022
     30 N           2.9871    0.7885   -1.3457 N.am    0  UNK0       -0.7158
     31 H           3.0910    1.7497   -1.0969 H       0  UNK0        0.4575
     32 C           4.1712   -0.0640   -1.4756 C.3     0  UNK0       -0.0273
     33 H           4.0087   -0.7484   -2.2948 H       0  UNK0        0.2676
     34 C           5.3935    0.8309   -1.7874 C.3     0  UNK0       -0.2967
     35 H           5.1007    1.4886   -2.5979 H       0  UNK0        0.1848
     36 H           5.6192    1.4609   -0.9332 H       0  UNK0        0.1775
     37 C           6.6559    0.0588   -2.1929 C.3     0  UNK0       -0.6270
     38 H           7.0470   -0.5257   -1.3799 H       0  UNK0        0.2868
     39 H           6.4577   -0.6176   -3.0107 H       0  UNK0        0.2160
     40 S           8.0417    1.2071   -2.7184 S.3     0  UNK0        0.1265
     41 C           7.6363    1.4600   -4.5209 C.3     0  UNK0       -0.7214
     42 H           6.6781    1.9433   -4.6402 H       0  UNK0        0.1999
     43 H           8.4098    2.0921   -4.9290 H       0  UNK0        0.2218
     44 H           7.6394    0.5112   -5.0351 H       0  UNK0        0.2282
     45 C           4.4045   -0.9814   -0.2689 C.2     0  UNK0        0.5232
     46 O           5.1734   -1.9368   -0.3890 O.2     0  UNK0       -0.4474
     47 N           3.7524   -0.7081    0.8908 N.am    0  UNK0       -0.7340
     48 H           3.2803    0.1621    0.9808 H       0  UNK0        0.3791
     49 C           3.8554   -1.5817    2.0595 C.3     0  UNK0       -0.0219
     50 H           4.2497   -2.5184    1.6882 H       0  UNK0        0.2795
     51 C           4.8120   -1.0798    3.1951 C.3     0  UNK0       -0.0129
     52 H           4.2315   -0.4691    3.8793 H       0  UNK0        0.1790
     53 C           5.3415   -2.2999    3.9763 C.3     0  UNK0       -0.6290
     54 H           6.0161   -2.8830    3.3552 H       0  UNK0        0.1684
     55 H           5.8830   -1.9910    4.8611 H       0  UNK0        0.1775
     56 H           4.5285   -2.9336    4.2986 H       0  UNK0        0.2362
     57 C           5.9722   -0.2177    2.6451 C.3     0  UNK0       -0.2714
     58 H           6.5473   -0.7970    1.9305 H       0  UNK0        0.1843
     59 H           5.5658    0.6306    2.1067 H       0  UNK0        0.1397
     60 C           6.9096    0.3225    3.7396 C.3     0  UNK0       -0.5985
     61 H           7.4726   -0.4685    4.2187 H       0  UNK0        0.1847
     62 H           7.6248    1.0184    3.3125 H       0  UNK0        0.1731
     63 H           6.3517    0.8492    4.5088 H       0  UNK0        0.1625
     64 C           2.4562   -1.8831    2.6182 C.2     0  UNK0        0.4272
     65 O           2.2984   -2.1311    3.8193 O.2     0  UNK0       -0.4603
     66 N           1.3885   -1.8867    1.7694 N.am    0  UNK0       -0.7508
     67 H           1.5143   -1.7157    0.7917 H       0  UNK0        0.4946
     68 C           0.0564   -2.1924    2.3208 C.3     0  UNK0        0.0226
     69 H           0.1951   -3.0148    3.0115 H       0  UNK0        0.2828
     70 C          -0.5365   -1.0643    3.1876 C.3     0  UNK0       -0.4412
     71 H          -1.2587   -1.4907    3.8711 H       0  UNK0        0.2345
     72 H           0.2628   -0.6898    3.8110 H       0  UNK0        0.2705
     73 C          -1.2330    0.1358    2.5612 C.2     0  UNK0        0.5197
     74 O          -1.2624    0.2424    1.2318 O.3     0  UNK0       -0.7969
     75 O          -1.7728    0.9610    3.3000 O.2     0  UNK0       -0.5061
     76 C          -0.8700   -2.7396    1.2225 C.3     0  UNK0        0.5920
     77 O          -2.0413   -2.2475    1.0664 O.3     0  UNK0       -0.7671
     78 N          -0.4826   -3.7459    0.5127 N.3     1  PHE1       -0.5534
     79 H           0.4050   -4.2039    0.6866 H       1  PHE1        0.4097
     80 CA         -1.2368   -4.5885   -0.4508 C.3     1  PHE1       -0.1114
     81 HA         -2.1369   -4.9434    0.0348 H       1  PHE1        0.2005
     82 CB         -1.4925   -3.9821   -1.8338 C.3     1  PHE1       -0.4765
     83 HB1        -0.6404   -3.3666   -2.1043 H       1  PHE1        0.2071
     84 HB2        -1.4711   -4.8366   -2.5053 H       1  PHE1        0.2762
     85 CG         -2.7726   -3.2018   -2.1412 C.ar    1  PHE1        0.3196
     86 CD2        -3.8345   -3.0194   -1.2526 C.ar    1  PHE1       -0.4607
     87 HD2        -3.7958   -3.4613   -0.2817 H       1  PHE1        0.3206
     88 CE2        -4.9857   -2.3378   -1.6398 C.ar    1  PHE1       -0.2333
     89 HE2        -5.7980   -2.2303   -0.9474 H       1  PHE1        0.2285
     90 CZ         -5.0990   -1.8290   -2.9141 C.ar    1  PHE1       -0.2280
     91 HZ         -5.9824   -1.2983   -3.2070 H       1  PHE1        0.2234
     92 CE1        -4.0596   -2.0149   -3.8058 C.ar    1  PHE1       -0.1781
     93 HE1        -4.1364   -1.6296   -4.8027 H       1  PHE1        0.2079
     94 CD1        -2.9205   -2.6899   -3.4226 C.ar    1  PHE1       -0.3056
     95 HD1        -2.1283   -2.8326   -4.1328 H       1  PHE1        0.2207
     96 C          -0.1532   -5.8623   -0.5406 C.3     1  PHE1       -0.1037
     97 O          -0.4847   -6.6627   -1.4211 O.3     1  PHE1       -0.5143
     98 MO         -2.8249   -0.5261    0.1209 Mo      0  UNK0        1.5242
     99 O          -4.5370    0.3823    0.3296 O.3     0  UNK0       -1.2923
    100 SI         -5.8852    1.2542    0.4274 Si      0  UNK0        2.2424
    101 O          -7.2448    0.3370    0.2249 O.3     0  UNK0       -1.0194
    102 H          -7.8584   -0.0728    0.8139 H       0  UNK0        0.4555
    103 O          -5.9327    2.4505   -0.7222 O.3     0  UNK0       -1.0131
    104 H          -6.5460    2.6118   -1.4235 H       0  UNK0        0.4484
    105 O          -5.9290    2.0132    1.9087 O.3     0  UNK0       -1.0298
    106 H          -6.2205    2.8676    2.1870 H       0  UNK0        0.4553
@<TRIPOS>BOND
     1    44    41    1
     2    43    41    1
     3    93    92    1
     4    42    41    1
     5    41    40    1
     6    95    94    1
     7    92    94   ar
     8    92    90   ar
     9    94    85   ar
    10    26    24    1
    11    91    90    1
    12    39    37    1
    13    90    88   ar
    14    40    37    1
    15    35    34    1
    16    84    82    1
    17    25    24    1
    18    33    32    1
    19    24    27    1
    20    24    22    1
    21    37    34    1
    22    37    38    1
    23     2     1    1
    24    85    82    1
    25    85    86   ar
    26    83    82    1
    27    27    98    1
    28    82    80    1
    29    34    32    1
    30    34    36    1
    31    88    86   ar
    32    88    89    1
    33     9     7    1
    34    32    30    1
    35    32    45    1
    36   104   103    1
    37    97    96    1
    38    21    20    1
    39    30    28   am
    40    30    31    1
    41    29    28    2
    42    28    22    1
    43    86    87    1
    44    20    22    1
    45    20    18   am
    46     1     3    1
    47     1     4    1
    48     1     5    1
    49    22    23    1
    50   103   100    1
    51    18     5    1
    52    18    19    2
    53     7     8    1
    54     7     5    1
    55     7    10    1
    56    96    80    1
    57    80    81    1
    58    80    78    1
    59    46    45    2
    60     5     6    1
    61    45    47   am
    62    17    16    1
    63    98    99    1
    64    98    77    1
    65    98    74    1
    66   101   100    1
    67   101   102    1
    68    99   100    1
    69   100   105    1
    70    78    79    1
    71    78    76    1
    72    10    16   ar
    73    10    11   ar
    74    16    14   ar
    75    67    66    1
    76    47    48    1
    77    47    49    1
    78    77    76    1
    79    76    68    1
    80    74    73    1
    81    50    49    1
    82    66    68    1
    83    66    64   am
    84    11    12   ar
    85   105   106    1
    86    58    57    1
    87    14    15    1
    88    14    12   ar
    89    49    64    1
    90    49    51    1
    91    59    57    1
    92    68    69    1
    93    68    70    1
    94    73    70    1
    95    73    75    2
    96    64    65    2
    97    57    51    1
    98    57    60    1
    99    12    13    1
   100    70    72    1
   101    70    71    1
   102    51    52    1
   103    51    53    1
   104    62    60    1
   105    54    53    1
   106    60    61    1
   107    60    63    1
   108    53    56    1
   109    53    55    1
