@<TRIPOS>MOLECULE
serine.nwout
   14    13     1     0     0
SMALL
rc


@<TRIPOS>ATOM
      1 O           0.9310   -1.9310   -0.2670 oh        1 LIG     -0.392900
      2 O1          1.5330    0.8710    0.6300 oh        1 LIG     -0.479500
      3 O2          0.0850    1.7180   -0.9030 o         1 LIG     -0.249200
      4 N          -1.9430    0.2930    0.3700 n3        1 LIG     -0.316600
      5 CA         -0.5700   -0.1990    0.4710 c3        1 LIG      0.126500
      6 C          -0.4070   -1.4580   -0.3760 c3        1 LIG      0.069700
      7 C1          0.3440    0.9030   -0.0290 c         1 LIG      0.324000
      8 HA         -0.3400   -0.3990    1.5240 h1        1 LIG      0.059700
      9 H1         -1.0830   -2.2540   -0.0470 h1        1 LIG      0.057800
     10 H2         -0.5990   -1.2590   -1.4360 h1        1 LIG      0.057800
     11 H3         -2.1680    0.5130   -0.6000 hn        1 LIG      0.119000
     12 H4         -2.0420    1.1600    0.8970 hn        1 LIG      0.119000
     13 H           1.0950   -2.1290    0.6710 ho        1 LIG      0.209500
     14 H5          2.1420    1.5740    0.3190 ho        1 LIG      0.295100
@<TRIPOS>BOND
     1   10    6 1   
     2    3    7 2   
     3   11    4 1   
     4    6    1 1   
     5    6    9 1   
     6    6    5 1   
     7    1   13 1   
     8    7    5 1   
     9    7    2 1   
    10   14    2 1   
    11    4    5 1   
    12    4   12 1   
    13    5    8 1   
@<TRIPOS>SUBSTRUCTURE
     1 LIG         1 TEMP              0 ****  ****    0 ROOT
