@<TRIPOS>MOLECULE
serine.nwout
 14 13 0 0 0
SMALL
GASTEIGER

@<TRIPOS>ATOM
      1 O           0.9309   -1.9314   -0.2666 O.3     1  LIG1       -0.3929
      2 O           1.5326    0.8710    0.6299 O.3     1  LIG1       -0.4795
      3 O           0.0851    1.7179   -0.9032 O.2     1  LIG1       -0.2492
      4 N          -1.9428    0.2930    0.3699 N.3     1  LIG1       -0.3166
      5 CA         -0.5697   -0.1985    0.4714 C.3     1  LIG1        0.1265
      6 C          -0.4073   -1.4575   -0.3756 C.3     1  LIG1        0.0697
      7 C           0.3445    0.9034   -0.0289 C.2     1  LIG1        0.3240
      8 HA         -0.3399   -0.3994    1.5238 H       1  LIG1        0.0597
      9 H1         -1.0833   -2.2543   -0.0470 H       1  LIG1        0.0578
     10 H2         -0.5990   -1.2590   -1.4357 H       1  LIG1        0.0578
     11 H1         -2.1676    0.5129   -0.5998 H       1  LIG1        0.1190
     12 H2         -2.0420    1.1597    0.8968 H       1  LIG1        0.1190
     13 H           1.0954   -2.1293    0.6711 H       1  LIG1        0.2095
     14 H           2.1421    1.5741    0.3191 H       1  LIG1        0.2951
@<TRIPOS>BOND
     1    10     6    1
     2     3     7    2
     3    11     4    1
     4     6     1    1
     5     6     9    1
     6     6     5    1
     7     1    13    1
     8     7     5    1
     9     7     2    1
    10    14     2    1
    11     4     5    1
    12     4    12    1
    13     5     8    1
